Version 4
SHEET 1 1032 680
WIRE 736 -336 736 -352
WIRE 736 -320 736 -336
WIRE 736 -224 736 -240
WIRE 736 -224 688 -224
WIRE 576 -208 544 -208
WIRE 592 -208 576 -208
WIRE 624 -208 592 -208
WIRE 736 -192 688 -192
WIRE 544 -176 544 -208
WIRE 736 -128 736 -192
WIRE 736 -112 736 -128
WIRE 544 -64 544 -96
WIRE 144 -32 144 -80
WIRE 32 48 32 0
WIRE 144 64 144 48
WIRE 144 80 144 64
WIRE 32 160 32 128
WIRE 96 160 32 160
WIRE 144 240 144 176
FLAG 144 240 0
FLAG 576 176 0
FLAG 576 96 Vinput
FLAG 688 176 0
FLAG 144 -80 vdd
FLAG 32 0 vinput
FLAG 144 64 vo
FLAG 688 96 vdd
FLAG 544 -64 0
FLAG 736 -128 vdd
FLAG 736 -336 vinput
FLAG 576 -208 vo2
SYMBOL nmos 96 80 R0
SYMATTR InstName M1
SYMATTR Value NTLMS4504N
SYMBOL res 128 -48 R0
SYMATTR InstName R1
SYMATTR Value 1
SYMBOL voltage 576 80 R0
WINDOW 3 24 44 Left 2
WINDOW 123 0 0 Left 2
WINDOW 39 0 0 Left 2
SYMATTR Value 0
SYMATTR InstName V1
SYMBOL voltage 688 80 R0
WINDOW 123 0 0 Left 2
WINDOW 39 0 0 Left 2
SYMATTR InstName V2
SYMATTR Value 3.3
SYMBOL res 16 32 R0
SYMATTR InstName R2
SYMATTR Value 100
SYMBOL pmos 912 -96 R0
SYMATTR InstName M2
SYMBOL res 528 -192 R0
SYMATTR InstName R3
SYMATTR Value 1
SYMBOL res 720 -336 R0
SYMATTR InstName R4
SYMATTR Value 100
SYMBOL AutoGenerated/DMP2008UFG 640 -208 R0
SYMATTR InstName U1
TEXT 368 -40 Left 2 !.dc V2 0 3.3 .01
